************************************************************
* Stages= 11
* R2= 0.999989 Max. difference= 0.00770599 K/W
************************************************************
.SUBCKT CAUER 1 12
C0 1 0 0.00030916681991857296
R0 1 2 0.054814419700319479
C1 2 0 0.0017378689016162897
R1 2 3 0.088569619577048814
C2 3 0 0.0037251688762375947
R2 3 4 0.20748279633248967
C3 4 0 0.014774106504251918
R3 4 5 0.1440450193460851
C4 5 0 0.064921305971427284
R4 5 6 0.17069520251056644
C5 6 0 0.1287911233885308
R5 6 7 0.26505545534965508
C6 7 0 0.16609587920521429
R6 7 8 0.38010374117258505
C7 8 0 0.42577300706940702
R7 8 9 0.21747852128915232
C8 9 0 0.95510211734625006
R8 9 10 0.22213488950928231
C9 10 0 8.2750882401289871
R9 10 11 0.1452102244764707
C10 11 0 49.116211483959283
R10 11 12 0.14783872991017033
.ENDS CAUER
