************************************************************
* Stages= 12
* R2= 0.999992 Max. difference= 0.0250664 K/W
************************************************************
.SUBCKT FOSTER 1 13
C0 1 2 0.0053832957580886584
R0 1 2 0.30002134501512551
C1 2 3 0.020076304705172042
R1 2 3 0.16775067920460543
C2 3 4 0.053810815325094526
R2 3 4 0.21759638349241367
C3 4 5 0.60619235994066689
R3 4 5 0.032952491066586598
C4 5 6 0.23952463385240386
R4 5 6 0.1384327477624242
C5 6 7 740.9276312308242
R5 6 7 8.0361633278871547e-005
C6 7 8 0.66251026972252558
R6 7 8 0.16847869099145935
C7 8 9 0.48842395079490841
R7 8 9 0.43552041416482706
C8 9 10 1.1329531281148764
R8 9 10 0.59310779333361086
C9 10 11 0.42166120765459514
R9 10 11 2.644428713176564
C10 11 12 3.3673678737160557
R10 11 12 0.91719620441912353
C11 12 13 24.190381279947715
R11 12 13 0.5736189001780847
.ENDS FOSTER
