************************************************************
* Stages= 12
* R2= 0.999992 Max. difference= 0.0250664 K/W
************************************************************
.SUBCKT CAUER 1 13
C0 1 0 0.0037435143766420351
R0 1 2 0.54212280139793356
C1 2 0 0.022298655287414565
R1 2 3 0.26873480585260262
C2 3 0 0.032462495678621139
R2 3 4 0.33566011350735958
C3 4 0 0.073434814254517103
R3 4 5 0.78854606667190386
C4 5 0 0.066888218309594918
R4 5 6 1.111076961644154
C5 6 0 0.08220463645455782
R5 6 7 0.52663772992010083
C6 7 0 0.15839494756251768
R6 7 8 1.2423383057111514
C7 8 0 0.44516989286429587
R7 8 9 0.55728037332305125
C8 9 0 2.7298925886629961
R8 9 10 0.063793771827024282
C9 10 0 1.6747749834182899
R9 10 11 0.28716748281831228
C10 11 0 7.9536662055570027
R10 11 12 0.24472809948112478
C11 12 0 44.081853357452694
R11 12 13 0.22109821228338536
.ENDS CAUER
